Version 4
SHEET 1 2664 1000
WIRE 736 -208 640 -208
WIRE 880 -208 816 -208
WIRE 1136 -208 1072 -208
WIRE 1216 -208 1136 -208
WIRE 1344 -208 1296 -208
WIRE 1344 -160 1344 -208
WIRE 1344 -144 1344 -160
WIRE 80 -64 -80 -64
WIRE 192 -64 160 -64
WIRE 320 -64 192 -64
WIRE 320 -48 320 -64
WIRE 352 -48 320 -48
WIRE 1504 -48 1504 -64
WIRE 1472 -32 1344 -32
WIRE 1488 -32 1472 -32
WIRE 352 -16 224 -16
WIRE 1664 -16 1536 -16
WIRE -80 0 -80 -64
WIRE 640 0 640 -208
WIRE 640 0 528 0
WIRE 1440 0 640 0
WIRE 1472 0 1440 0
WIRE 1488 0 1472 0
WIRE 224 16 224 -16
WIRE 352 16 256 16
WIRE 1344 32 1344 -32
WIRE 1504 32 1504 16
WIRE 256 64 256 16
WIRE 96 256 96 -16
WIRE 256 256 96 256
WIRE 336 256 320 256
WIRE 96 336 96 256
WIRE 1664 384 1664 -16
WIRE 1664 384 1584 384
WIRE 1664 416 1664 384
WIRE 416 448 384 448
WIRE 1648 464 1552 464
WIRE 416 480 416 448
WIRE 336 496 336 256
WIRE 384 496 384 448
WIRE 1232 512 1232 432
WIRE 1232 512 1200 512
WIRE 1264 512 1232 512
WIRE 1440 512 1440 0
WIRE 1440 512 1344 512
WIRE 976 528 864 528
WIRE 1136 528 976 528
WIRE 192 544 192 -64
WIRE 320 544 192 544
WIRE 656 544 400 544
WIRE 800 544 656 544
WIRE 1264 544 1200 544
WIRE 1360 544 1264 544
WIRE 1552 544 1552 464
WIRE 1552 544 1440 544
WIRE 1584 544 1584 384
WIRE 1664 544 1584 544
WIRE 912 560 864 560
WIRE 656 576 656 544
WIRE 1664 624 1664 544
WIRE -80 672 -80 608
WIRE 0 672 -80 672
WIRE 656 688 656 656
WIRE 912 688 912 560
WIRE 912 688 656 688
WIRE -80 720 -80 672
WIRE 656 720 656 688
WIRE 1552 736 1552 544
WIRE 1648 736 1552 736
WIRE 976 752 976 528
WIRE 1072 752 976 752
WIRE 1264 752 1264 544
WIRE 1264 752 1152 752
FLAG 0 672 0
FLAG -80 528 Vcc
FLAG -80 800 Vee
FLAG 144 -16 0
FLAG 224 16 0
FLAG 256 144 0
FLAG -80 80 0
FLAG 96 416 0
FLAG 416 480 0
FLAG 1504 -64 Vcc
FLAG 1504 32 Vee
FLAG 1344 112 0
FLAG 656 800 0
FLAG 1232 352 0
FLAG 832 512 Vcc
FLAG 1168 496 Vcc
FLAG 1168 560 Vee
FLAG 832 576 Vee
FLAG 1728 464 Vref
FLAG 1712 416 0
FLAG 1712 688 0
FLAG 1728 736 Vcc
FLAG 1344 -80 0
FLAG 1072 -112 0
FLAG 880 -112 0
FLAG 1136 -208 OUTPUT
SYMBOL voltage -80 512 R0
WINDOW 123 0 0 Left 0
WINDOW 39 0 0 Left 0
SYMATTR InstName V1
SYMATTR Value 5
SYMBOL voltage -80 704 R0
WINDOW 123 0 0 Left 0
WINDOW 39 0 0 Left 0
SYMATTR InstName V2
SYMATTR Value 5
SYMBOL voltage -80 -16 R0
WINDOW 123 0 0 Left 0
WINDOW 39 0 0 Left 0
SYMATTR InstName V3
SYMATTR Value SINE(0 5 100)
SYMBOL voltage 96 320 R0
WINDOW 123 0 0 Left 0
WINDOW 39 0 0 Left 0
SYMATTR InstName CLK
SYMATTR Value 5
SYMBOL voltage 256 48 R0
WINDOW 123 0 0 Left 0
WINDOW 39 0 0 Left 0
SYMATTR InstName V5
SYMATTR Value PULSE(0 5 0 10u 10u 50u 1m)
SYMBOL SpecialFunctions\\sample 432 -16 R0
SYMATTR InstName A1
SYMBOL sw 64 -64 R270
SYMATTR InstName S1
SYMATTR Value MYSW
SYMBOL Digital\\inv 256 192 R0
SYMATTR InstName A2
SYMBOL sw 416 544 R90
SYMATTR InstName S2
SYMATTR Value MYSW
SYMBOL OpAmps\\LT1001 1504 -80 R0
WINDOW 0 -16 62 Left 2
WINDOW 3 16 101 Left 2
SYMATTR InstName U1
SYMBOL voltage 1344 16 R0
WINDOW 123 0 0 Left 0
WINDOW 39 0 0 Left 0
SYMATTR InstName Vref
SYMATTR Value 3
SYMBOL res 1360 496 R90
WINDOW 0 0 56 VBottom 2
WINDOW 3 32 56 VTop 2
SYMATTR InstName R1
SYMATTR Value 1k
SYMBOL OpAmps\\LT1001 1168 592 R180
SYMATTR InstName U2
SYMBOL OpAmps\\LT1001 832 608 R180
SYMATTR InstName U3
SYMBOL res 1456 528 R90
WINDOW 0 0 56 VBottom 2
WINDOW 3 32 56 VTop 2
SYMATTR InstName R2
SYMATTR Value 1k
SYMBOL res 1248 448 R180
WINDOW 0 36 76 Left 2
WINDOW 3 36 40 Left 2
SYMATTR InstName R3
SYMATTR Value 1k
SYMBOL res 1056 768 R270
WINDOW 0 32 56 VTop 2
WINDOW 3 0 56 VBottom 2
SYMATTR InstName R4
SYMATTR Value 1k
SYMBOL res 640 560 R0
SYMATTR InstName R5
SYMATTR Value 1k
SYMBOL res 640 704 R0
SYMATTR InstName R6
SYMATTR Value 1k
SYMBOL sw 1744 464 R90
SYMATTR InstName S3
SYMATTR Value MYSW
SYMBOL sw 1744 736 R90
SYMATTR InstName S4
SYMATTR Value MYSW
SYMBOL Digital\\inv 1728 624 R90
SYMATTR InstName A3
SYMBOL Optos\\PC817C 976 -160 R0
SYMATTR InstName U4
SYMBOL res 832 -224 R90
WINDOW 0 0 56 VBottom 2
WINDOW 3 32 56 VTop 2
SYMATTR InstName R7
SYMATTR Value 200
SYMBOL res 1312 -224 R90
WINDOW 0 0 56 VBottom 2
WINDOW 3 32 56 VTop 2
SYMATTR InstName R8
SYMATTR Value 200
SYMBOL voltage 1344 -176 R0
WINDOW 123 0 0 Left 0
WINDOW 39 0 0 Left 0
SYMATTR InstName V4
SYMATTR Value 5
TEXT -8 824 Left 2 !.model MYSW SW(Ron=1 Roff=1Meg Vt=0.5 Vh=-0.4)
TEXT 22 784 Left 2 !.tran 0.03
